<configuration>
  <input>
    <net-file value="in/most.net.xml"/>
    <route-files value="in/dummy.rou.xml"/>
    <additional-files value="in/most.add.xml"/>
  </input>
  <time>
    <begin value="0"/>
    <end value="6600"/>
  </time>
</configuration>
