<?xml version="1.0" encoding="UTF-8"?>

<!-- generated on 2026-03-25 17:17:38 by Eclipse SUMO netconvert Version 1.19.0
<configuration xmlns:xsi="http://www.w3.org/2001/XMLSchema-instance" xsi:noNamespaceSchemaLocation="http://sumo.dlr.de/xsd/netconvertConfiguration.xsd">

    <input>
        <sumo-net-file value="C:\Users\ardak\PycharmProjects\groningen_sumo\deeprl_signal_control\real_net\data\in\most.net.xml"/>
    </input>

    <output>
        <output-file value="C:\Users\ardak\PycharmProjects\groningen_sumo\deeprl_signal_control\real_net_subnet\data\in\most.net.xml"/>
    </output>

    <processing>
        <geometry.min-radius.fix.railways value="false"/>
        <geometry.max-grade.fix value="false"/>
        <offset.disable-normalization value="true"/>
        <lefthand value="0"/>
    </processing>

    <edge_removal>
        <keep-edges.input-file value="C:\Users\ardak\PycharmProjects\groningen_sumo\deeprl_signal_control\real_net_subnet\data\in\keep_edges.txt"/>
    </edge_removal>

    <junctions>
        <no-turnarounds value="true"/>
        <junctions.corner-detail value="5"/>
        <junctions.limit-turn-speed value="-1.00"/>
        <rectangular-lane-cut value="0"/>
    </junctions>

    <pedestrian>
        <walkingareas value="0"/>
    </pedestrian>

</configuration>
-->

<net version="1.16" junctionCornerDetail="5" xmlns:xsi="http://www.w3.org/2001/XMLSchema-instance" xsi:noNamespaceSchemaLocation="http://sumo.dlr.de/xsd/net_file.xsd">

    <location netOffset="-372770.12,-4843872.33" convBoundary="0.00,37.56,714.51,714.20" origBoundary="7.419972,43.736993,7.430138,43.745152" projParameter="+proj=utm +zone=32 +ellps=WGS84 +datum=WGS84 +units=m +no_defs"/>

    <type id="highway.pedestrian" priority="1" numLanes="1" speed="2.78" allow="pedestrian bicycle" oneway="1" width="2.00"/>
    <type id="highway.residential" priority="4" numLanes="1" speed="13.89" disallow="tram rail_urban rail rail_electric ship" oneway="0" sidewalkWidth="1.50"/>
    <type id="highway.secondary" priority="7" numLanes="2" speed="13.89" disallow="pedestrian tram rail_urban rail rail_electric ship" oneway="0" sidewalkWidth="1.50"/>
    <type id="highway.steps" priority="1" numLanes="1" speed="1.39" allow="pedestrian" oneway="1" width="2.00"/>
    <type id="highway.tertiary" priority="6" numLanes="1" speed="13.89" disallow="pedestrian tram rail_urban rail rail_electric ship" oneway="0" sidewalkWidth="1.50"/>

    <edge id=":10026_0" function="internal">
        <lane id=":10026_0_0" index="0" disallow="pedestrian tram rail_urban rail rail_electric rail_fast ship" speed="16.95" length="16.68" shape="324.19,331.28,70.80 318.88,328.71,70.83 314.50,327.38,70.85 311.06,327.27,70.87 308.54,328.40,70.88"/>
    </edge>
    <edge id=":10026_1" function="internal">
        <lane id=":10026_1_0" index="0" disallow="pedestrian tram rail_urban rail rail_electric rail_fast ship" speed="20.00" length="9.91" shape="324.19,331.28,70.80 315.55,326.48,70.77"/>
        <lane id=":10026_1_1" index="1" disallow="pedestrian tram rail_urban rail rail_electric rail_fast ship" speed="20.00" length="9.91" shape="325.69,328.46,70.80 317.01,323.63,70.77"/>
    </edge>
    <edge id=":10026_3" function="internal">
        <lane id=":10026_3_0" index="0" disallow="pedestrian tram rail_urban rail rail_electric rail_fast ship" speed="16.95" length="2.35" shape="325.69,328.46,70.80 324.11,326.73,70.80"/>
    </edge>
    <edge id=":10026_14" function="internal">
        <lane id=":10026_14_0" index="0" disallow="pedestrian tram rail_urban rail rail_electric rail_fast ship" speed="16.95" length="14.25" shape="324.11,326.73,70.80 322.90,325.40,70.80 323.14,321.82,70.80 325.79,318.68,70.80 330.21,316.92,70.80"/>
    </edge>
    <edge id=":10026_4" function="internal">
        <lane id=":10026_4_0" index="0" disallow="pedestrian tram rail_urban rail rail_electric rail_fast ship" speed="16.95" length="10.73" shape="319.91,317.92,70.77 322.77,318.86,70.78 324.94,318.58,70.79 327.17,317.72,70.79 330.21,316.92,70.80"/>
    </edge>
    <edge id=":10026_5" function="internal">
        <lane id=":10026_5_0" index="0" disallow="pedestrian tram rail_urban rail rail_electric rail_fast ship" speed="20.00" length="10.03" shape="319.91,317.92,70.77 328.71,322.81,70.80"/>
        <lane id=":10026_5_1" index="1" disallow="pedestrian tram rail_urban rail rail_electric rail_fast ship" speed="20.00" length="10.03" shape="318.46,320.78,70.77 327.20,325.64,70.80"/>
    </edge>
    <edge id=":10026_7" function="internal">
        <lane id=":10026_7_0" index="0" disallow="pedestrian tram rail_urban rail rail_electric rail_fast ship" speed="16.95" length="1.46" shape="318.46,320.78,70.77 317.53,321.90,70.79"/>
    </edge>
    <edge id=":10026_15" function="internal">
        <lane id=":10026_15_0" index="0" disallow="pedestrian tram rail_urban rail rail_electric rail_fast ship" speed="16.95" length="11.10" shape="317.53,321.90,70.79 317.39,322.07,70.79 314.12,324.52,70.82 310.54,327.00,70.86 308.54,328.40,70.88"/>
    </edge>
    <edge id=":10026_8" function="internal">
        <lane id=":10026_8_0" index="0" disallow="pedestrian tram rail_urban rail rail_electric rail_fast ship" speed="16.95" length="7.96" shape="309.06,323.23,70.80 317.01,323.63,70.77"/>
    </edge>
    <edge id=":10026_9" function="internal">
        <lane id=":10026_9_0" index="0" disallow="pedestrian tram rail_urban rail rail_electric rail_fast ship" speed="16.95" length="19.80" shape="309.06,323.23,70.80 316.43,322.37,70.80 322.16,322.02,70.80 326.25,322.16,70.80 328.71,322.81,70.80"/>
    </edge>
    <edge id=":10026_10" function="internal">
        <lane id=":10026_10_0" index="0" disallow="pedestrian tram rail_urban rail rail_electric rail_fast ship" speed="13.89" length="5.20" shape="309.06,323.23,70.80 308.54,328.40,70.88"/>
    </edge>
    <edge id=":10026_11" function="internal">
        <lane id=":10026_11_0" index="0" disallow="pedestrian tram rail_urban rail rail_electric rail_fast ship" speed="16.95" length="9.63" shape="306.47,325.96,70.88 308.17,325.03,70.86 310.25,324.81,70.83 312.71,325.29,70.81 315.55,326.48,70.77"/>
    </edge>
    <edge id=":10026_12" function="internal">
        <lane id=":10026_12_0" index="0" disallow="pedestrian tram rail_urban rail rail_electric rail_fast ship" speed="13.89" length="25.71" shape="306.47,325.96,70.88 312.70,321.92,70.86 319.34,319.29,70.83 325.49,317.73,70.81 330.21,316.92,70.80"/>
    </edge>
    <edge id=":10026_13" function="internal">
        <lane id=":10026_13_0" index="0" disallow="pedestrian tram rail_urban rail rail_electric rail_fast ship" speed="16.95" length="0.20" shape="306.47,325.96,70.88 306.64,325.86,70.88"/>
    </edge>
    <edge id=":10026_16" function="internal">
        <lane id=":10026_16_0" index="0" disallow="pedestrian tram rail_urban rail rail_electric rail_fast ship" speed="16.95" length="21.95" shape="306.64,325.86,70.88 310.91,323.27,70.86 315.85,322.31,70.84 321.28,323.10,70.82 327.20,325.64,70.80"/>
    </edge>
    <edge id=":8789_0" function="internal">
        <lane id=":8789_0_0" index="0" disallow="pedestrian tram rail_urban rail rail_electric rail_fast ship" speed="20.00" length="5.00" shape="605.41,554.30,54.47 601.89,550.75,54.51"/>
        <lane id=":8789_0_1" index="1" disallow="pedestrian tram rail_urban rail rail_electric rail_fast ship" speed="20.00" length="5.00" shape="607.69,552.05,54.47 604.17,548.50,54.51"/>
    </edge>
    <edge id=":8789_2" function="internal">
        <lane id=":8789_2_0" index="0" disallow="pedestrian tram rail_urban rail rail_electric rail_fast ship" speed="20.00" length="5.00" shape="608.71,544.00,54.51 612.23,547.55,54.47"/>
        <lane id=":8789_2_1" index="1" disallow="pedestrian tram rail_urban rail rail_electric rail_fast ship" speed="20.00" length="5.00" shape="606.44,546.25,54.51 609.96,549.80,54.47"/>
    </edge>
    <edge id=":8794_0" function="internal">
        <lane id=":8794_0_0" index="0" disallow="pedestrian tram rail_urban rail rail_electric rail_fast ship" speed="13.89" length="11.94" shape="373.42,210.10,55.32 371.95,207.53,55.32 369.83,205.84,55.31 367.08,205.03,55.31 363.68,205.09,55.30"/>
    </edge>
    <edge id=":8794_1" function="internal">
        <lane id=":8794_1_0" index="0" disallow="pedestrian tram rail_urban rail rail_electric rail_fast ship" speed="13.89" length="16.38" shape="373.42,210.10,55.32 367.14,194.97,55.15"/>
    </edge>
    <edge id=":8794_2" function="internal">
        <lane id=":8794_2_0" index="0" disallow="pedestrian tram rail_urban rail rail_electric rail_fast ship" speed="13.89" length="4.01" shape="373.42,210.10,55.32 372.53,206.19,55.29"/>
    </edge>
    <edge id=":8794_12" function="internal">
        <lane id=":8794_12_0" index="0" disallow="pedestrian tram rail_urban rail rail_electric rail_fast ship" speed="13.89" length="10.82" shape="372.53,206.19,55.29 372.51,206.08,55.29 373.16,202.85,55.26 375.38,200.41,55.23 379.16,198.77,55.19"/>
    </edge>
    <edge id=":8794_3" function="internal">
        <lane id=":8794_3_0" index="0" disallow="pedestrian tram rail_urban rail rail_electric rail_fast ship" speed="13.89" length="9.29" shape="380.00,201.86,55.20 377.63,202.89,55.23 376.25,204.41,55.26 375.84,206.43,55.29 376.41,208.95,55.32"/>
    </edge>
    <edge id=":8794_4" function="internal">
        <lane id=":8794_4_0" index="0" disallow="pedestrian tram rail_urban rail rail_electric rail_fast ship" speed="13.89" length="16.66" shape="380.00,201.86,55.20 375.23,203.13,55.23 371.92,203.88,55.25 368.58,204.43,55.27 363.68,205.09,55.30"/>
    </edge>
    <edge id=":8794_5" function="internal">
        <lane id=":8794_5_0" index="0" disallow="pedestrian tram rail_urban rail rail_electric rail_fast ship" speed="13.89" length="4.11" shape="380.00,201.86,55.20 375.92,202.32,55.18"/>
    </edge>
    <edge id=":8794_13" function="internal">
        <lane id=":8794_13_0" index="0" disallow="pedestrian tram rail_urban rail rail_electric rail_fast ship" speed="13.89" length="12.02" shape="375.92,202.32,55.18 372.41,201.33,55.17 369.49,198.88,55.16 367.14,194.97,55.15"/>
    </edge>
    <edge id=":8794_6" function="internal">
        <lane id=":8794_6_0" index="0" disallow="pedestrian tram rail_urban rail rail_electric rail_fast ship" speed="13.89" length="11.52" shape="370.07,193.67,55.15 371.76,196.53,55.16 373.84,198.33,55.17 376.31,199.08,55.18 379.16,198.77,55.19"/>
    </edge>
    <edge id=":8794_7" function="internal">
        <lane id=":8794_7_0" index="0" disallow="pedestrian tram rail_urban rail rail_electric rail_fast ship" speed="13.89" length="16.54" shape="370.07,193.67,55.15 376.41,208.95,55.32"/>
    </edge>
    <edge id=":8794_8" function="internal">
        <lane id=":8794_8_0" index="0" disallow="pedestrian tram rail_urban rail rail_electric rail_fast ship" speed="13.89" length="4.75" shape="370.07,193.67,55.15 371.33,198.13,55.19 371.30,198.25,55.19"/>
    </edge>
    <edge id=":8794_14" function="internal">
        <lane id=":8794_14_0" index="0" disallow="pedestrian tram rail_urban rail rail_electric rail_fast ship" speed="13.89" length="11.40" shape="371.30,198.25,55.19 370.68,201.51,55.22 368.13,203.83,55.26 363.68,205.09,55.30"/>
    </edge>
    <edge id=":8794_9" function="internal">
        <lane id=":8794_9_0" index="0" disallow="pedestrian tram rail_urban rail rail_electric rail_fast ship" speed="13.89" length="9.83" shape="363.25,201.92,55.30 365.96,201.15,55.26 367.52,199.74,55.22 367.91,197.68,55.19 367.14,194.97,55.15"/>
    </edge>
    <edge id=":8794_10" function="internal">
        <lane id=":8794_10_0" index="0" disallow="pedestrian tram rail_urban rail rail_electric rail_fast ship" speed="13.89" length="16.24" shape="363.25,201.92,55.30 368.03,201.27,55.27 371.29,200.74,55.25 374.51,200.01,55.23 379.16,198.77,55.19"/>
    </edge>
    <edge id=":8794_11" function="internal">
        <lane id=":8794_11_0" index="0" disallow="pedestrian tram rail_urban rail rail_electric rail_fast ship" speed="13.89" length="4.82" shape="363.25,201.92,55.30 367.81,201.86,55.31 368.06,201.94,55.31"/>
    </edge>
    <edge id=":8794_15" function="internal">
        <lane id=":8794_15_0" index="0" disallow="pedestrian tram rail_urban rail rail_electric rail_fast ship" speed="13.89" length="11.44" shape="368.06,201.94,55.31 371.52,203.01,55.31 374.38,205.37,55.32 376.41,208.95,55.32"/>
    </edge>
    <edge id=":8803_0" function="internal">
        <lane id=":8803_0_0" index="0" disallow="pedestrian tram rail_urban rail rail_electric rail_fast ship" speed="16.95" length="13.66" shape="356.06,366.08,67.49 354.15,362.62,67.57 352.93,360.17,67.62 351.48,357.89,67.67 348.94,354.90,67.74"/>
        <lane id=":8803_0_1" index="1" disallow="pedestrian tram rail_urban rail rail_electric rail_fast ship" speed="16.95" length="13.66" shape="358.81,364.44,67.49 356.80,360.80,67.56 355.49,358.25,67.62 353.96,355.86,67.66 351.28,352.72,67.74"/>
    </edge>
    <edge id=":8803_2" function="internal">
        <lane id=":8803_2_0" index="0" disallow="pedestrian tram rail_urban rail rail_electric rail_fast ship" speed="16.95" length="14.09" shape="355.96,348.35,67.73 366.09,357.97,67.60"/>
        <lane id=":8803_2_1" index="1" disallow="pedestrian tram rail_urban rail rail_electric rail_fast ship" speed="16.95" length="14.09" shape="353.62,350.53,67.74 363.91,360.31,67.60"/>
    </edge>
    <edge id=":8852_0" function="internal">
        <lane id=":8852_0_0" index="0" disallow="pedestrian tram rail_urban rail rail_electric rail_fast ship" speed="13.89" length="5.08" shape="584.29,692.57,66.73 580.00,689.84,66.59"/>
    </edge>
    <edge id=":8852_1" function="internal">
        <lane id=":8852_1_0" index="0" disallow="pedestrian tram rail_urban rail rail_electric rail_fast ship" speed="13.89" length="5.11" shape="581.71,687.13,66.59 586.01,689.88,66.73"/>
    </edge>
    <edge id=":8926_0" function="internal">
        <lane id=":8926_0_0" index="0" disallow="pedestrian tram rail_urban rail rail_electric rail_fast ship" speed="13.89" length="17.05" shape="60.09,346.49,98.20 57.74,342.11,98.20 55.44,339.56,98.20 52.65,337.33,98.20 48.87,333.94,98.20"/>
    </edge>
    <edge id=":8926_1" function="internal">
        <lane id=":8926_1_0" index="0" disallow="pedestrian tram rail_urban rail rail_electric rail_fast ship" speed="13.89" length="17.67" shape="60.09,346.49,98.20 58.40,341.63,98.19 57.79,337.18,98.18 58.25,333.13,98.16 59.79,329.48,98.15"/>
    </edge>
    <edge id=":8926_2" function="internal">
        <lane id=":8926_2_0" index="0" disallow="pedestrian tram rail_urban rail rail_electric rail_fast ship" speed="13.89" length="15.67" shape="63.30,329.85,98.12 61.82,333.22,98.14 61.26,336.86,98.16 61.62,340.77,98.18 62.91,344.95,98.20"/>
    </edge>
    <edge id=":8926_3" function="internal">
        <lane id=":8926_3_0" index="0" disallow="pedestrian tram rail_urban rail rail_electric rail_fast ship" speed="13.89" length="3.62" shape="63.30,329.85,98.12 61.10,332.73,98.14"/>
    </edge>
    <edge id=":8926_6" function="internal">
        <lane id=":8926_6_0" index="0" disallow="pedestrian tram rail_urban rail rail_electric rail_fast ship" speed="13.89" length="14.52" shape="61.10,332.73,98.14 59.79,334.45,98.15 56.21,336.67,98.17 52.57,336.50,98.18 48.87,333.94,98.20"/>
    </edge>
    <edge id=":8926_4" function="internal">
        <lane id=":8926_4_0" index="0" disallow="pedestrian tram rail_urban rail rail_electric rail_fast ship" speed="13.89" length="10.82" shape="51.14,331.68,98.20 53.39,333.27,98.19 55.59,333.43,98.18 57.72,332.17,98.17 59.79,329.48,98.15"/>
    </edge>
    <edge id=":8926_5" function="internal">
        <lane id=":8926_5_0" index="0" disallow="pedestrian tram rail_urban rail rail_electric rail_fast ship" speed="13.89" length="18.01" shape="51.14,331.68,98.20 55.15,335.25,98.20 58.12,337.59,98.20 60.55,340.30,98.20 62.91,344.95,98.20"/>
    </edge>
    <edge id=":8932_0" function="internal">
        <lane id=":8932_0_0" index="0" disallow="pedestrian tram rail_urban rail rail_electric rail_fast ship" speed="13.89" length="6.02" shape="622.62,234.55,41.60 621.20,233.48,41.60 620.10,232.86,41.60 618.89,232.63,41.60 617.14,232.71,41.60"/>
    </edge>
    <edge id=":8932_1" function="internal">
        <lane id=":8932_1_0" index="0" disallow="pedestrian tram rail_urban rail rail_electric rail_fast ship" speed="13.89" length="7.65" shape="622.49,224.97,41.60 622.43,227.31,41.60 622.76,229.27,41.60 623.47,230.83,41.60 624.56,232.00,41.60"/>
    </edge>
    <edge id=":8932_2" function="internal">
        <lane id=":8932_2_0" index="0" disallow="pedestrian tram rail_urban rail rail_electric rail_fast ship" speed="13.89" length="10.23" shape="622.49,224.97,41.60 621.89,228.18,41.60 620.80,230.54,41.60 619.22,232.05,41.60 617.14,232.71,41.60"/>
    </edge>
    <edge id=":8932_3" function="internal">
        <lane id=":8932_3_0" index="0" disallow="pedestrian tram rail_urban rail rail_electric rail_fast ship" speed="13.89" length="8.47" shape="616.82,229.53,41.41 619.28,229.39,41.46 621.00,229.69,41.50 622.56,230.52,41.54 624.56,232.00,41.60"/>
    </edge>
    <edge id=":8940_0" function="internal">
        <lane id=":8940_0_0" index="0" disallow="pedestrian tram rail_urban rail rail_electric rail_fast ship" speed="13.89" length="9.49" shape="577.29,398.93,43.85 575.39,397.01,43.86 573.40,396.17,43.87 571.33,396.42,43.89 569.17,397.75,43.90"/>
    </edge>
    <edge id=":8940_1" function="internal">
        <lane id=":8940_1_0" index="0" disallow="pedestrian tram rail_urban rail rail_electric rail_fast ship" speed="13.89" length="15.05" shape="577.29,398.93,43.85 575.27,395.24,43.86 575.03,391.93,43.87 576.58,388.99,43.89 579.92,386.43,43.90"/>
    </edge>
    <edge id=":8940_2" function="internal">
        <lane id=":8940_2_0" index="0" disallow="pedestrian tram rail_urban rail rail_electric rail_fast ship" speed="13.89" length="9.38" shape="581.48,389.22,43.90 579.41,390.82,43.89 578.44,392.65,43.87 578.59,394.71,43.86 579.85,397.01,43.85"/>
    </edge>
    <edge id=":8940_3" function="internal">
        <lane id=":8940_3_0" index="0" disallow="pedestrian tram rail_urban rail rail_electric rail_fast ship" speed="13.89" length="15.02" shape="581.48,389.22,43.90 577.61,391.42,43.90 575.02,393.04,43.90 572.58,394.89,43.90 569.17,397.75,43.90"/>
    </edge>
    <edge id=":8940_4" function="internal">
        <lane id=":8940_4_0" index="0" disallow="pedestrian tram rail_urban rail rail_electric rail_fast ship" speed="13.89" length="15.64" shape="567.10,395.31,43.90 570.65,392.33,43.90 573.19,390.41,43.90 575.88,388.72,43.90 579.92,386.43,43.90"/>
    </edge>
    <edge id=":8940_5" function="internal">
        <lane id=":8940_5_0" index="0" disallow="pedestrian tram rail_urban rail rail_electric rail_fast ship" speed="13.89" length="4.14" shape="567.10,395.31,43.90 570.52,393.19,43.89 570.63,393.17,43.89"/>
    </edge>
    <edge id=":8940_6" function="internal">
        <lane id=":8940_6_0" index="0" disallow="pedestrian tram rail_urban rail rail_electric rail_fast ship" speed="13.89" length="10.73" shape="570.63,393.17,43.89 573.78,392.76,43.87 576.89,394.04,43.86 579.85,397.01,43.85"/>
    </edge>
    <edge id=":8964_0" function="internal">
        <lane id=":8964_0_0" index="0" disallow="pedestrian tram rail_urban rail rail_electric rail_fast ship" speed="20.00" length="6.97" shape="470.35,262.19,50.50 470.03,264.42,50.54 470.02,266.02,50.56 469.78,267.53,50.59 468.77,269.45,50.63"/>
        <lane id=":8964_0_1" index="1" disallow="pedestrian tram rail_urban rail rail_electric rail_fast ship" speed="20.00" length="6.97" shape="467.23,261.46,50.50 467.00,263.35,50.54 467.07,264.73,50.57 466.94,266.02,50.59 466.12,267.65,50.63"/>
    </edge>
    <edge id=":8964_2" function="internal">
        <lane id=":8964_2_0" index="0" disallow="pedestrian tram rail_urban rail rail_electric rail_fast ship" speed="20.00" length="4.74" shape="460.83,264.06,50.63 461.27,262.99,50.60 461.17,262.13,50.57 460.94,261.22,50.54 461.00,259.99,50.50"/>
        <lane id=":8964_2_1" index="1" disallow="pedestrian tram rail_urban rail rail_electric rail_fast ship" speed="20.00" length="4.74" shape="463.48,265.86,50.63 464.10,264.50,50.59 464.12,263.43,50.57 463.97,262.29,50.54 464.12,260.72,50.50"/>
    </edge>
    <edge id=":8996_0" function="internal">
        <lane id=":8996_0_0" index="0" disallow="pedestrian tram rail_urban rail rail_electric rail_fast ship" speed="13.89" length="0.67" shape="162.58,385.03,90.20 162.21,384.47,90.20"/>
    </edge>
    <edge id=":8996_3" function="internal">
        <lane id=":8996_3_0" index="0" disallow="pedestrian tram rail_urban rail rail_electric rail_fast ship" speed="13.89" length="7.61" shape="162.21,384.47,90.20 161.41,383.26,90.20 161.70,381.39,90.20 162.08,379.42,90.20 161.16,377.36,90.20"/>
    </edge>
    <edge id=":8996_1" function="internal">
        <lane id=":8996_1_0" index="0" disallow="pedestrian tram rail_urban rail rail_electric rail_fast ship" speed="13.89" length="10.83" shape="155.73,384.22,90.20 159.51,382.68,90.20 161.68,381.02,90.20 162.23,379.25,90.20 161.16,377.36,90.20"/>
    </edge>
    <edge id=":8996_2" function="internal">
        <lane id=":8996_2_0" index="0" disallow="pedestrian tram rail_urban rail rail_electric rail_fast ship" speed="13.89" length="9.00" shape="155.73,384.22,90.20 159.18,383.17,90.20 161.78,382.53,90.20 163.54,382.28,90.20 164.46,382.45,90.20"/>
    </edge>
    <edge id=":9007_0" function="internal">
        <lane id=":9007_0_0" index="0" disallow="pedestrian tram rail_urban rail rail_electric rail_fast ship" speed="13.89" length="12.08" shape="629.84,349.87,38.50 626.97,347.34,38.50 624.80,346.91,38.50 623.33,348.57,38.50 622.56,352.31,38.50"/>
    </edge>
    <edge id=":9007_1" function="internal">
        <lane id=":9007_1_0" index="0" disallow="pedestrian tram rail_urban rail rail_electric rail_fast ship" speed="13.89" length="17.73" shape="629.84,349.87,38.50 626.27,346.00,38.50 623.81,343.37,38.50 621.48,340.62,38.50 618.30,336.44,38.50"/>
    </edge>
    <edge id=":9007_2" function="internal">
        <lane id=":9007_2_0" index="0" disallow="pedestrian tram rail_urban rail rail_electric rail_fast ship" speed="13.89" length="17.40" shape="620.88,334.54,38.50 624.00,338.66,38.50 626.29,341.35,38.50 628.71,343.93,38.50 632.22,347.72,38.50"/>
    </edge>
    <edge id=":9007_3" function="internal">
        <lane id=":9007_3_0" index="0" disallow="pedestrian tram rail_urban rail rail_electric rail_fast ship" speed="13.89" length="5.25" shape="620.88,334.54,38.50 623.48,339.11,38.50"/>
    </edge>
    <edge id=":9007_6" function="internal">
        <lane id=":9007_6_0" index="0" disallow="pedestrian tram rail_urban rail rail_electric rail_fast ship" speed="13.89" length="13.35" shape="623.48,339.11,38.50 623.99,342.79,38.50 623.37,346.80,38.50 622.56,352.31,38.50"/>
    </edge>
    <edge id=":9007_4" function="internal">
        <lane id=":9007_4_0" index="0" disallow="pedestrian tram rail_urban rail rail_electric rail_fast ship" speed="13.89" length="16.31" shape="619.38,352.03,38.50 620.14,347.20,38.50 620.82,343.68,38.50 620.51,340.44,38.50 618.30,336.44,38.50"/>
    </edge>
    <edge id=":9007_5" function="internal">
        <lane id=":9007_5_0" index="0" disallow="pedestrian tram rail_urban rail rail_electric rail_fast ship" speed="13.89" length="21.30" shape="619.38,352.03,38.50 620.72,345.42,38.50 623.31,342.50,38.50 627.14,343.27,38.50 632.22,347.72,38.50"/>
    </edge>
    <edge id=":9048_0" function="internal">
        <lane id=":9048_0_0" index="0" disallow="pedestrian tram rail_urban rail rail_electric rail_fast ship" speed="13.89" length="5.10" shape="539.77,673.13,67.96 538.44,672.40,68.01 537.58,671.83,68.05 536.79,671.15,68.08 535.71,670.09,68.13"/>
    </edge>
    <edge id=":9048_1" function="internal">
        <lane id=":9048_1_0" index="0" disallow="pedestrian tram rail_urban rail rail_electric rail_fast ship" speed="13.89" length="4.17" shape="537.97,667.82,68.13 538.85,668.69,68.07 539.49,669.25,68.03 540.20,669.72,68.00 541.27,670.31,67.94"/>
    </edge>
    <edge id=":9058_0" function="internal">
        <lane id=":9058_0_0" index="0" disallow="pedestrian tram rail_urban rail rail_electric rail_fast ship" speed="13.89" length="15.77" shape="461.62,182.39,50.50 459.26,179.03,50.50 456.25,177.01,50.50 452.61,176.31,50.50 448.32,176.95,50.50"/>
    </edge>
    <edge id=":9058_1" function="internal">
        <lane id=":9058_1_0" index="0" disallow="pedestrian tram rail_urban rail rail_electric rail_fast ship" speed="13.89" length="18.96" shape="461.62,182.39,50.50 458.63,177.65,50.51 455.96,174.75,50.52 453.48,171.77,50.52 451.06,166.79,50.53"/>
    </edge>
    <edge id=":9058_2" function="internal">
        <lane id=":9058_2_0" index="0" disallow="pedestrian tram rail_urban rail rail_electric rail_fast ship" speed="13.89" length="4.07" shape="461.62,182.39,50.50 460.19,178.58,50.50"/>
    </edge>
    <edge id=":9058_12" function="internal">
        <lane id=":9058_12_0" index="0" disallow="pedestrian tram rail_urban rail rail_electric rail_fast ship" speed="13.89" length="13.11" shape="460.19,178.58,50.50 459.72,177.34,50.50 459.63,173.26,50.50 461.36,170.15,50.50 464.90,168.00,50.50"/>
    </edge>
    <edge id=":9058_3" function="internal">
        <lane id=":9058_3_0" index="0" disallow="pedestrian tram rail_urban rail rail_electric rail_fast ship" speed="13.89" length="10.41" shape="466.03,170.99,50.50 463.81,172.31,50.50 462.70,174.19,50.50 462.70,176.64,50.50 463.81,179.64,50.50"/>
    </edge>
    <edge id=":9058_4" function="internal">
        <lane id=":9058_4_0" index="0" disallow="pedestrian tram rail_urban rail rail_electric rail_fast ship" speed="13.89" length="18.68" shape="466.03,170.99,50.50 448.32,176.95,50.50"/>
    </edge>
    <edge id=":9058_5" function="internal">
        <lane id=":9058_5_0" index="0" disallow="pedestrian tram rail_urban rail rail_electric rail_fast ship" speed="13.89" length="6.27" shape="466.03,170.99,50.50 461.86,171.71,50.51 459.83,171.48,50.51"/>
    </edge>
    <edge id=":9058_13" function="internal">
        <lane id=":9058_13_0" index="0" disallow="pedestrian tram rail_urban rail rail_electric rail_fast ship" speed="13.89" length="10.39" shape="459.83,171.48,50.51 457.32,171.19,50.52 453.38,169.52,50.52 451.06,166.79,50.53"/>
    </edge>
    <edge id=":9058_6" function="internal">
        <lane id=":9058_6_0" index="0" disallow="pedestrian tram rail_urban rail rail_electric rail_fast ship" speed="13.89" length="12.48" shape="454.06,165.68,50.53 455.51,167.93,50.52 457.80,169.06,50.52 460.93,169.09,50.51 464.90,168.00,50.50"/>
    </edge>
    <edge id=":9058_7" function="internal">
        <lane id=":9058_7_0" index="0" disallow="pedestrian tram rail_urban rail rail_electric rail_fast ship" speed="13.89" length="17.15" shape="454.06,165.68,50.53 456.28,170.17,50.52 458.60,172.81,50.51 461.08,175.38,50.51 463.81,179.64,50.50"/>
    </edge>
    <edge id=":9058_8" function="internal">
        <lane id=":9058_8_0" index="0" disallow="pedestrian tram rail_urban rail rail_electric rail_fast ship" speed="13.89" length="2.96" shape="454.06,165.68,50.53 454.68,168.57,50.52"/>
    </edge>
    <edge id=":9058_14" function="internal">
        <lane id=":9058_14_0" index="0" disallow="pedestrian tram rail_urban rail rail_electric rail_fast ship" speed="13.89" length="11.73" shape="454.68,168.57,50.52 454.91,169.66,50.52 454.23,172.87,50.51 452.04,175.30,50.51 448.32,176.95,50.50"/>
    </edge>
    <edge id=":9058_9" function="internal">
        <lane id=":9058_9_0" index="0" disallow="pedestrian tram rail_urban rail rail_electric rail_fast ship" speed="13.89" length="9.23" shape="447.45,173.87,50.50 449.79,172.83,50.51 451.17,171.31,50.51 451.59,169.29,50.52 451.06,166.79,50.53"/>
    </edge>
    <edge id=":9058_10" function="internal">
        <lane id=":9058_10_0" index="0" disallow="pedestrian tram rail_urban rail rail_electric rail_fast ship" speed="13.89" length="18.42" shape="447.45,173.87,50.50 464.90,168.00,50.50"/>
    </edge>
    <edge id=":9058_11" function="internal">
        <lane id=":9058_11_0" index="0" disallow="pedestrian tram rail_urban rail rail_electric rail_fast ship" speed="13.89" length="4.36" shape="447.45,173.87,50.50 451.79,173.49,50.50"/>
    </edge>
    <edge id=":9058_15" function="internal">
        <lane id=":9058_15_0" index="0" disallow="pedestrian tram rail_urban rail rail_electric rail_fast ship" speed="13.89" length="13.98" shape="451.79,173.49,50.50 452.03,173.47,50.50 456.85,174.46,50.50 461.06,176.60,50.50 463.81,179.64,50.50"/>
    </edge>
    <edge id=":9071_0" function="internal">
        <lane id=":9071_0_0" index="0" disallow="pedestrian tram rail_urban rail rail_electric rail_fast ship" speed="13.89" length="19.13" shape="288.52,375.99,72.70 291.53,373.04,72.70 293.39,369.17,72.70 294.11,364.36,72.70 293.68,358.61,72.70"/>
    </edge>
    <edge id=":9071_1" function="internal">
        <lane id=":9071_1_0" index="0" disallow="pedestrian tram rail_urban rail rail_electric rail_fast ship" speed="13.89" length="5.42" shape="288.52,375.99,72.70 293.16,373.19,72.65"/>
    </edge>
    <edge id=":9071_6" function="internal">
        <lane id=":9071_6_0" index="0" disallow="pedestrian tram rail_urban rail rail_electric rail_fast ship" speed="13.89" length="13.66" shape="293.16,373.19,72.65 294.47,372.40,72.63 299.32,370.64,72.58 303.05,370.70,72.55 305.67,372.60,72.51"/>
    </edge>
    <edge id=":9071_2" function="internal">
        <lane id=":9071_2_0" index="0" disallow="pedestrian tram rail_urban rail rail_electric rail_fast ship" speed="13.89" length="10.44" shape="303.10,374.49,72.51 301.65,373.44,72.55 299.60,373.39,72.58 296.96,374.34,72.63 293.71,376.29,72.70"/>
    </edge>
    <edge id=":9071_3" function="internal">