<additional><laneAreaDetector file="ild.out" freq="1" id="ild:-10089#4_1" lane="-10089#4_1" pos="6.77" endPos="33.77" friendlyPos="true" />
  <laneAreaDetector file="ild.out" freq="1" id="ild:-10089#4_2" lane="-10089#4_2" pos="6.77" endPos="33.77" friendlyPos="true" />
  <laneAreaDetector file="ild.out" freq="1" id="ild:gneE5_0" lane="gneE5_0" pos="97.61" endPos="147.61" friendlyPos="true" />
  <laneAreaDetector file="ild.out" freq="1" id="ild:10089#3_1" lane="10089#3_1" pos="39" endPos="88" friendlyPos="true" />
  <laneAreaDetector file="ild.out" freq="1" id="ild:10089#3_2" lane="10089#3_2" pos="39" endPos="88" friendlyPos="true" />
  <laneAreaDetector file="ild.out" freq="1" id="ild:-10046#0_1" lane="-10046#0_1" pos="2.9" endPos="37.9" friendlyPos="true" />
  <laneAreaDetector file="ild.out" freq="1" id="ild:-10115#5_1" lane="-10115#5_1" pos="38.26" endPos="87.26" friendlyPos="true" />
  <laneAreaDetector file="ild.out" freq="1" id="ild:-10104_1" lane="-10104_1" pos="22.99" endPos="71.99" friendlyPos="true" />
  <laneAreaDetector file="ild.out" freq="1" id="ild:10115#4_1" lane="10115#4_1" pos="0.1" endPos="42.65" friendlyPos="true" />
  <laneAreaDetector file="ild.out" freq="1" id="ild:10106#3_1" lane="10106#3_1" pos="22.7" endPos="71.7" friendlyPos="true" />
  <laneAreaDetector file="ild.out" freq="1" id="ild:10061#5_1" lane="10061#5_1" pos="76.87" endPos="125.87" friendlyPos="true" />
  <laneAreaDetector file="ild.out" freq="1" id="ild:10065#1_1" lane="10065#1_1" pos="0.1" endPos="21.62" friendlyPos="true" />
  <laneAreaDetector file="ild.out" freq="1" id="ild:-10065#2_1" lane="-10065#2_1" pos="62.14" endPos="111.14" friendlyPos="true" />
  <laneAreaDetector file="ild.out" freq="1" id="ild:-10083#0_1" lane="-10083#0_1" pos="1.55" endPos="35.55" friendlyPos="true" />
  <laneAreaDetector file="ild.out" freq="1" id="ild:gneE19_0" lane="gneE19_0" pos="1" endPos="50" friendlyPos="true" />
  <laneAreaDetector file="ild.out" freq="1" id="ild:10071#4_1" lane="10071#4_1" pos="0.52" endPos="25.52" friendlyPos="true" />
  <laneAreaDetector file="ild.out" freq="1" id="ild:-10071#5_1" lane="-10071#5_1" pos="0.1" endPos="43.45" friendlyPos="true" />
  <laneAreaDetector file="ild.out" freq="1" id="ild:-10065#0_1" lane="-10065#0_1" pos="0.75" endPos="16.75" friendlyPos="true" />
  <laneAreaDetector file="ild.out" freq="1" id="ild:-10062_1" lane="-10062_1" pos="0.14" endPos="18.14" friendlyPos="true" />
  <laneAreaDetector file="ild.out" freq="1" id="ild:-10043_1" lane="-10043_1" pos="2.25" endPos="51.25" friendlyPos="true" />
  <laneAreaDetector file="ild.out" freq="1" id="ild:-10110_1" lane="-10110_1" pos="98.47" endPos="147.47" friendlyPos="true" />
  <laneAreaDetector file="ild.out" freq="1" id="ild:10104_1" lane="10104_1" pos="22.94" endPos="71.94" friendlyPos="true" />
  <laneAreaDetector file="ild.out" freq="1" id="ild:-10051#0_1" lane="-10051#0_1" pos="47.6" endPos="96.6" friendlyPos="true" />
  <laneAreaDetector file="ild.out" freq="1" id="ild:10050#0_1" lane="10050#0_1" pos="2.08" endPos="35.08" friendlyPos="true" />
  <laneAreaDetector file="ild.out" freq="1" id="ild:10071#5_1" lane="10071#5_1" pos="0.1" endPos="45.67" friendlyPos="true" />
  <laneAreaDetector file="ild.out" freq="1" id="ild:-10053#1_1" lane="-10053#1_1" pos="33.01" endPos="82.01" friendlyPos="true" />
  <laneAreaDetector file="ild.out" freq="1" id="ild:10053#0_1" lane="10053#0_1" pos="0.1" endPos="20.55" friendlyPos="true" />
  <laneAreaDetector file="ild.out" freq="1" id="ild:gneE10_0" lane="gneE10_0" pos="94.95" endPos="143.95" friendlyPos="true" />
  <laneAreaDetector file="ild.out" freq="1" id="ild:-10106#2_1" lane="-10106#2_1" pos="0.1" endPos="30.71" friendlyPos="true" />
  <laneAreaDetector file="ild.out" freq="1" id="ild:10106#1_1" lane="10106#1_1" pos="56.55" endPos="105.55" friendlyPos="true" />
  <laneAreaDetector file="ild.out" freq="1" id="ild:10109_1" lane="10109_1" pos="48.32" endPos="97.32" friendlyPos="true" />
  <laneAreaDetector file="ild.out" freq="1" id="ild:-10064#4_1" lane="-10064#4_1" pos="5.55" endPos="54.55" friendlyPos="true" />
  <laneAreaDetector file="ild.out" freq="1" id="ild:-10064#4_2" lane="-10064#4_2" pos="5.55" endPos="54.55" friendlyPos="true" />
  <laneAreaDetector file="ild.out" freq="1" id="ild:10065#2_1" lane="10065#2_1" pos="64.08" endPos="113.08" friendlyPos="true" />
  <laneAreaDetector file="ild.out" freq="1" id="ild:10064#3_1" lane="10064#3_1" pos="25.3" endPos="74.3" friendlyPos="true" />
  <laneAreaDetector file="ild.out" freq="1" id="ild:10064#3_2" lane="10064#3_2" pos="25.3" endPos="74.3" friendlyPos="true" />
  <laneAreaDetector file="ild.out" freq="1" id="ild:-10059_1" lane="-10059_1" pos="0.35" endPos="14.35" friendlyPos="true" />
  <laneAreaDetector file="ild.out" freq="1" id="ild:-10089#3_1" lane="-10089#3_1" pos="38.36" endPos="87.36" friendlyPos="true" />
  <laneAreaDetector file="ild.out" freq="1" id="ild:-10089#3_2" lane="-10089#3_2" pos="38.36" endPos="87.36" friendlyPos="true" />
  <laneAreaDetector file="ild.out" freq="1" id="ild:10089#2_1" lane="10089#2_1" pos="1.68" endPos="24.68" friendlyPos="true" />
  <laneAreaDetector file="ild.out" freq="1" id="ild:10089#2_2" lane="10089#2_2" pos="1.68" endPos="24.68" friendlyPos="true" />
  <laneAreaDetector file="ild.out" freq="1" id="ild:10099#3_1" lane="10099#3_1" pos="1.45" endPos="22.45" friendlyPos="true" />
  <laneAreaDetector file="ild.out" freq="1" id="ild:10052#5_1" lane="10052#5_1" pos="1.88" endPos="5.88" friendlyPos="true" />
  <laneAreaDetector file="ild.out" freq="1" id="ild:10180#3_1" lane="10180#3_1" pos="1.77" endPos="19.77" friendlyPos="true" />
  <laneAreaDetector file="ild.out" freq="1" id="ild:-10053#0_1" lane="-10053#0_1" pos="0.1" endPos="20.9" friendlyPos="true" />
  <laneAreaDetector file="ild.out" freq="1" id="ild:10053#2_1" lane="10053#2_1" pos="3.12" endPos="52.12" friendlyPos="true" />
  <laneAreaDetector file="ild.out" freq="1" id="ild:-10067#0_1" lane="-10067#0_1" pos="0.1" endPos="3.34" friendlyPos="true" />
  <laneAreaDetector file="ild.out" freq="1" id="ild:-10080#0_1" lane="-10080#0_1" pos="16.51" endPos="65.51" friendlyPos="true" />
  <laneAreaDetector file="ild.out" freq="1" id="ild:10183#13_1" lane="10183#13_1" pos="1.03" endPos="22.03" friendlyPos="true" />
  <laneAreaDetector file="ild.out" freq="1" id="ild:-10183#14_1" lane="-10183#14_1" pos="0.68" endPos="16.68" friendlyPos="true" />
  <laneAreaDetector file="ild.out" freq="1" id="ild:-10185#0_1" lane="-10185#0_1" pos="27.38" endPos="76.38" friendlyPos="true" />
  <laneAreaDetector file="ild.out" freq="1" id="ild:10031#0_1" lane="10031#0_1" pos="0.1" endPos="30.48" friendlyPos="true" />
  <laneAreaDetector file="ild.out" freq="1" id="ild:10031#0_2" lane="10031#0_2" pos="0.1" endPos="30.48" friendlyPos="true" />
  <laneAreaDetector file="ild.out" freq="1" id="ild:10077_1" lane="10077_1" pos="1.16" endPos="8.16" friendlyPos="true" />
  <laneAreaDetector file="ild.out" freq="1" id="ild:10086_1" lane="10086_1" pos="19.01" endPos="68.01" friendlyPos="true" />
  <laneAreaDetector file="ild.out" freq="1" id="ild:10046#1_1" lane="10046#1_1" pos="0.1" endPos="14.67" friendlyPos="true" />
  <laneAreaDetector file="ild.out" freq="1" id="ild:gneE13_0" lane="gneE13_0" pos="18.67" endPos="67.67" friendlyPos="true" />
  <laneAreaDetector file="ild.out" freq="1" id="ild:gneE15_0" lane="gneE15_0" pos="0.1" endPos="30.08" friendlyPos="true" />
  <laneAreaDetector file="ild.out" freq="1" id="ild:-10051#1_1" lane="-10051#1_1" pos="0.37" endPos="22.37" friendlyPos="true" />
  <laneAreaDetector file="ild.out" freq="1" id="ild:10051#0_1" lane="10051#0_1" pos="49.58" endPos="98.58" friendlyPos="true" />
  <laneAreaDetector file="ild.out" freq="1" id="ild:-10178_1" lane="-10178_1" pos="0.87" endPos="10.87" friendlyPos="true" />
  <laneAreaDetector file="ild.out" freq="1" id="ild:-10094#2_1" lane="-10094#2_1" pos="0.32" endPos="16.32" friendlyPos="true" />
  <laneAreaDetector file="ild.out" freq="1" id="ild:-10095_1" lane="-10095_1" pos="99.23" endPos="148.23" friendlyPos="true" />
  <laneAreaDetector file="ild.out" freq="1" id="ild:10094#1_1" lane="10094#1_1" pos="0.1" endPos="16.74" friendlyPos="true" />
  <laneAreaDetector file="ild.out" freq="1" id="ild:-10089#2_1" lane="-10089#2_1" pos="1.37" endPos="24.37" friendlyPos="true" />
  <laneAreaDetector file="ild.out" freq="1" id="ild:-10089#2_2" lane="-10089#2_2" pos="1.37" endPos="24.37" friendlyPos="true" />
  <laneAreaDetector file="ild.out" freq="1" id="ild:-10109_1" lane="-10109_1" pos="50.63" endPos="99.63" friendlyPos="true" />
  <laneAreaDetector file="ild.out" freq="1" id="ild:10089#1_1" lane="10089#1_1" pos="122.23" endPos="171.23" friendlyPos="true" />
  <laneAreaDetector file="ild.out" freq="1" id="ild:10089#1_2" lane="10089#1_2" pos="122.23" endPos="171.23" friendlyPos="true" />
  <laneAreaDetector file="ild.out" freq="1" id="ild:10094#3_1" lane="10094#3_1" pos="0.1" endPos="13.9" friendlyPos="true" />
  <laneAreaDetector file="ild.out" freq="1" id="ild:-10106#3_1" lane="-10106#3_1" pos="27.34" endPos="76.34" friendlyPos="true" />
  <laneAreaDetector file="ild.out" freq="1" id="ild:10049_1" lane="10049_1" pos="0.1" endPos="41.5" friendlyPos="true" />
  <laneAreaDetector file="ild.out" freq="1" id="ild:10106#2_1" lane="10106#2_1" pos="0.1" endPos="36.57" friendlyPos="true" />
  <laneAreaDetector file="ild.out" freq="1" id="ild:gneE20_0" lane="gneE20_0" pos="14.48" endPos="63.48" friendlyPos="true" />
  <laneAreaDetector file="ild.out" freq="1" id="ild:-10100_1" lane="-10100_1" pos="14.43" endPos="63.43" friendlyPos="true" />
  <laneAreaDetector file="ild.out" freq="1" id="ild:-10186_1" lane="-10186_1" pos="13.3" endPos="62.3" friendlyPos="true" />
  <laneAreaDetector file="ild.out" freq="1" id="ild:-10078#2_1" lane="-10078#2_1" pos="0.1" endPos="7.83" friendlyPos="true" />
  <laneAreaDetector file="ild.out" freq="1" id="ild:10083#2_1" lane="10083#2_1" pos="15.55" endPos="64.55" friendlyPos="true" />
  <laneAreaDetector file="ild.out" freq="1" id="ild:-10084#0_1" lane="-10084#0_1" pos="49.35" endPos="98.35" friendlyPos="true" />
  <laneAreaDetector file="ild.out" freq="1" id="ild:-10115#4_1" lane="-10115#4_1" pos="0.26" endPos="41.26" friendlyPos="true" />
  <laneAreaDetector file="ild.out" freq="1" id="ild:10110_1" lane="10110_1" pos="88.93" endPos="137.93" friendlyPos="true" />
  <laneAreaDetector file="ild.out" freq="1" id="ild:10115#2_1" lane="10115#2_1" pos="128.45" endPos="177.45" friendlyPos="true" />
  <laneAreaDetector file="ild.out" freq="1" id="ild:-10049_1" lane="-10049_1" pos="0.1" endPos="43.06" friendlyPos="true" />
  <laneAreaDetector file="ild.out" freq="1" id="ild:gneE11_0" lane="gneE11_0" pos="3.57" endPos="52.57" friendlyPos="true" />
  <laneAreaDetector file="ild.out" freq="1" id="ild:gneE11_1" lane="gneE11_1" pos="3.57" endPos="52.57" friendlyPos="true" />
  <laneAreaDetector file="ild.out" freq="1" id="ild:gneE9_0" lane="gneE9_0" pos="94.95" endPos="143.95" friendlyPos="true" />
  <laneAreaDetector file="ild.out" freq="1" id="ild:-10090#0_1" lane="-10090#0_1" pos="0.1" endPos="14.85" friendlyPos="true" />
  <laneAreaDetector file="ild.out" freq="1" id="ild:-10090#0_2" lane="-10090#0_2" pos="0.1" endPos="14.85" friendlyPos="true" />
  <laneAreaDetector file="ild.out" freq="1" id="ild:10092_1" lane="10092_1" pos="0.3" endPos="37.3" friendlyPos="true" />
  <laneAreaDetector file="ild.out" freq="1" id="ild:10092_2" lane="10092_2" pos="0.3" endPos="37.3" friendlyPos="true" />
  <laneAreaDetector file="ild.out" freq="1" id="ild:-10085_1" lane="-10085_1" pos="22.84" endPos="71.84" friendlyPos="true" />
  <laneAreaDetector file="ild.out" freq="1" id="ild:gneE16_0" lane="gneE16_0" pos="0.1" endPos="30.08" friendlyPos="true" />
  <laneAreaDetector file="ild.out" freq="1" id="ild:10100_1" lane="10100_1" pos="6.32" endPos="55.32" friendlyPos="true" />
  <laneAreaDetector file="ild.out" freq="1" id="ild:-10046#5_1" lane="-10046#5_1" pos="0.1" endPos="9.89" friendlyPos="true" />
  <laneAreaDetector file="ild.out" freq="1" id="ild:10090#1_1" lane="10090#1_1" pos="0.1" endPos="35.9" friendlyPos="true" />
  <laneAreaDetector file="ild.out" freq="1" id="ild:10090#1_2" lane="10090#1_2" pos="0.1" endPos="35.9" friendlyPos="true" />
  <laneAreaDetector file="ild.out" freq="1" id="ild:10108#5_1" lane="10108#5_1" pos="1.6" endPos="50.6" friendlyPos="true" />
  <laneAreaDetector file="ild.out" freq="1" id="ild:10108#5_2" lane="10108#5_2" pos="1.6" endPos="50.6" friendlyPos="true" />
  <laneAreaDetector file="ild.out" freq="1" id="ild:10115#5_1" lane="10115#5_1" pos="37.84" endPos="86.84" friendlyPos="true" />
  <laneAreaDetector file="ild.out" freq="1" id="ild:gneE4_0" lane="gneE4_0" pos="86.74" endPos="136.74" friendlyPos="true" />
  <laneAreaDetector file="ild.out" freq="1" id="ild:10108#2_1" lane="10108#2_1" pos="0.1" endPos="16.43" friendlyPos="true" />
  <laneAreaDetector file="ild.out" freq="1" id="ild:10108#2_2" lane="10108#2_2" pos="0.1" endPos="16.43" friendlyPos="true" />
  <laneAreaDetector file="ild.out" freq="1" id="ild:10062_1" lane="10062_1" pos="0.1" endPos="19.65" friendlyPos="true" />
  <laneAreaDetector file="ild.out" freq="1" id="ild:gneE7_0" lane="gneE7_0" pos="1.47" endPos="47.47" friendlyPos="true" />
  <laneAreaDetector file="ild.out" freq="1" id="ild:gneE7_1" lane="gneE7_1" pos="1.47" endPos="47.47" friendlyPos="true" />
  <laneAreaDetector file="ild.out" freq="1" id="ild:10067#1_1" lane="10067#1_1" pos="13.53" endPos="62.53" friendlyPos="true" />
  <laneAreaDetector file="ild.out" freq="1" id="ild:10108#0_1" lane="10108#0_1" pos="42.13" endPos="91.13" friendlyPos="true" />
  <laneAreaDetector file="ild.out" freq="1" id="ild:10108#0_2" lane="10108#0_2" pos="42.13" endPos="91.13" friendlyPos="true" />
  <laneAreaDetector file="ild.out" freq="1" id="ild:10043_1" lane="10043_1" pos="8.09" endPos="57.09" friendlyPos="true" />
  <laneAreaDetector file="ild.out" freq="1" id="ild:-10108#2_1" lane="-10108#2_1" pos="0.1" endPos="17.94" friendlyPos="true" />
  <laneAreaDetector file="ild.out" freq="1" id="ild:-10108#2_2" lane="-10108#2_2" pos="0.1" endPos="17.94" friendlyPos="true" />
  <laneAreaDetector file="ild.out" freq="1" id="ild:10102_1" lane="10102_1" pos="80.34" endPos="129.34" friendlyPos="true" />
  <laneAreaDetector file="ild.out" freq="1" id="ild:10102_2" lane="10102_2" pos="80.34" endPos="129.34" friendlyPos="true" />
  <laneAreaDetector file="ild.out" freq="1" id="ild:gneE18_0" lane="gneE18_0" pos="17.25" endPos="67.25" friendlyPos="true" />
  <laneAreaDetector file="ild.out" freq="1" id="ild:-10116_1" lane="-10116_1" pos="11.68" endPos="60.68" friendlyPos="true" />
  <laneAreaDetector file="ild.out" freq="1" id="ild:10181#2_1" lane="10181#2_1" pos="0.54" endPos="36.54" friendlyPos="true" />
</additional>