<routes>
  <vType id="type1" length="5" accel="5" decel="10"/>
</routes>
